LTspice 24.1.10 for Windows
Circuit: C:\Users\S0l1d\02- VLSI\LAb02\5bit_DAC.spi
Start Time: Mon Sep 29 13:36:52 2025
No analysis specified.