LTspice 24.1.10 for Windows
Circuit: C:\Users\S0l1d\02- VLSI\Lab01\5bit_DAC_sim.spi
Start Time: Thu Sep 25 19:35:12 2025
solver = Normal
Maximum thread count: 16
tnom = 27
temp = 27
method = trap
.OP point found by inspection.
Total elapsed time: 1.339 seconds.

Files loaded:
C:\Users\S0l1d\02- VLSI\Lab01\5bit_DAC_sim.spi

