LTspice 24.1.10 for Windows
Circuit: C:\Users\S0l1d\02- VLSI\Lab01\R_divider_sim.spi
Start Time: Thu Sep 25 19:28:15 2025
solver = Normal
Maximum thread count: 16
tnom = 27
temp = 27
method = trap
Direct Newton iteration for .op point succeeded.
Total elapsed time: 0.081 seconds.

Files loaded:
C:\Users\S0l1d\02- VLSI\Lab01\R_divider_sim.spi

