LTspice 24.1.10 for Windows
Circuit: C:\Users\S0l1d\02- VLSI\Lab04\Not_Gate.spi
Start Time: Tue Oct 21 18:53:22 2025
Ignoring BSIM parameter XL
Ignoring BSIM parameter XW
Ignoring BSIM parameter XL
Ignoring BSIM parameter XW
solver = Normal
Maximum thread count: 16
tnom = 27
temp = 27
method = trap
Warning: Pd = 0 is less than W.
Warning: Ps = 0 is less than W.
Warning: Pd = 0 is less than W.
Warning: Ps = 0 is less than W.
.step 
Total elapsed time: 0.213 seconds.

Files loaded:
C:\Users\S0l1d\02- VLSI\Lab04\Not_Gate.spi
C:\Users\S0l1d\02- VLSI\Lab04\C5_models.txt

