LTspice 24.1.10 for Windows
Circuit: C:\Users\S0l1d\02- VLSI\Tut_4\test_inverters.spi
Start Time: Thu Oct 16 22:57:56 2025
Ignoring BSIM parameter XL
Ignoring BSIM parameter XW
Ignoring BSIM parameter XL
Ignoring BSIM parameter XW
solver = Normal
Maximum thread count: 16
tnom = 27
temp = 27
method = trap
Warning: Pd = 0 is less than W.
Warning: Ps = 0 is less than W.
Warning: Pd = 0 is less than W.
Warning: Ps = 0 is less than W.
Warning: Pd = 0 is less than W.
Warning: Ps = 0 is less than W.
Warning: Pd = 0 is less than W.
Warning: Ps = 0 is less than W.
.step 
Total elapsed time: 0.222 seconds.

Files loaded:
C:\Users\S0l1d\02- VLSI\Tut_4\test_inverters.spi
C:\Users\S0l1d\02- VLSI\Tut_4\C5_models.txt

