LTspice 24.1.10 for Windows
Circuit: C:\Users\S0l1d\02- VLSI\Lab04\test_inverters_load.spi
Start Time: Tue Oct 21 19:08:57 2025
Ignoring BSIM parameter XL
Ignoring BSIM parameter XW
Ignoring BSIM parameter XL
Ignoring BSIM parameter XW
solver = Normal
Maximum thread count: 16
tnom = 27
temp = 27
method = trap
Warning: Pd = 0 is less than W.
Warning: Ps = 0 is less than W.
Warning: Pd = 0 is less than W.
Warning: Ps = 0 is less than W.
Warning: Pd = 0 is less than W.
Warning: Ps = 0 is less than W.
Warning: Pd = 0 is less than W.
Warning: Ps = 0 is less than W.
Direct Newton iteration for .op point succeeded.
.step x=1e-13
.step x=1e-12
.step x=1e-11
.step x=1e-10
Total elapsed time: 0.325 seconds.

Files loaded:
C:\Users\S0l1d\02- VLSI\Lab04\test_inverters_load.spi
C:\Users\S0l1d\02- VLSI\Lab04\C5_models.txt

