LTspice 24.1.10 for Windows
Circuit: C:\Users\S0l1d\02- VLSI\Tut_4\test_inverters_load.spi
Start Time: Thu Oct 16 22:56:02 2025
Ignoring BSIM parameter XL
Ignoring BSIM parameter XW
Ignoring BSIM parameter XL
Ignoring BSIM parameter XW
solver = Normal
Maximum thread count: 16
tnom = 27
temp = 27
method = trap
Warning: Pd = 0 is less than W.
Warning: Ps = 0 is less than W.
Warning: Pd = 0 is less than W.
Warning: Ps = 0 is less than W.
Warning: Pd = 0 is less than W.
Warning: Ps = 0 is less than W.
Warning: Pd = 0 is less than W.
Warning: Ps = 0 is less than W.
Direct Newton iteration for .op point succeeded.
.step x=1e-15
.step x=1e-14
.step x=1e-13
Total elapsed time: 0.318 seconds.

Files loaded:
C:\Users\S0l1d\02- VLSI\Tut_4\test_inverters_load.spi
C:\Users\S0l1d\02- VLSI\Tut_4\C5_models.txt

