LTspice 24.1.10 for Windows
Circuit: C:\Users\S0l1d\OneDrive\Desktop\New folder\FULLADDER1_NM_F13.spi
Start Time: Fri Oct 24 12:07:41 2025
Ignoring BSIM parameter XL
Ignoring BSIM parameter XW
Ignoring BSIM parameter XL
Ignoring BSIM parameter XW
solver = Normal
Maximum thread count: 16
tnom = 27
temp = 27
method = trap
Warning: Pd = 0 is less than W.
Warning: Ps = 0 is less than W.
Warning: Pd = 0 is less than W.
Warning: Ps = 0 is less than W.
Warning: Pd = 0 is less than W.
Warning: Ps = 0 is less than W.
Direct Newton iteration for .op point succeeded.
Total elapsed time: 0.982 seconds.

Files loaded:
C:\Users\S0l1d\OneDrive\Desktop\New folder\FULLADDER1_NM_F13.spi
C:\Users\S0l1d\OneDrive\Desktop\New folder\C5_models.txt

