LTspice 24.1.10 for Windows
Circuit: C:\Users\S0l1d\OneDrive\Desktop\Lab_05\FULLADDER2.spi
Start Time: Fri Oct 24 17:23:19 2025
Ignoring BSIM parameter XL
Ignoring BSIM parameter XW
Ignoring BSIM parameter XL
Ignoring BSIM parameter XW
solver = Normal
Maximum thread count: 16
tnom = 27
temp = 27
method = trap
Warning: Pd = 0 is less than W.
Warning: Ps = 0 is less than W.
Warning: Pd = 0 is less than W.
Warning: Ps = 0 is less than W.
Direct Newton iteration for .op point succeeded.
Total elapsed time: 0.537 seconds.

Files loaded:
C:\Users\S0l1d\OneDrive\Desktop\Lab_05\FULLADDER2.spi
C:\Users\S0l1d\OneDrive\Desktop\Lab_05\C5_models.txt

