LTspice 24.1.10 for Windows
Circuit: C:\Users\S0l1d\02- VLSI\Lab_04\NMOS_IV.spi
Start Time: Fri Oct  3 11:05:52 2025
Ignoring BSIM parameter XL
Ignoring BSIM parameter XW
solver = Normal
Maximum thread count: 16
tnom = 27
temp = 27
method = trap
C:\Users\S0l1d\02- VLSI\Lab_04\NMOS_IV.spi(15): Missing value, assuming 0V @ DC.

vb b 0
^^^^^^
.OP point found by inspection.
.step vg=0 
.step vg=1 
.step vg=2 
.step vg=3 
.step vg=4 
.step vg=5 
Total elapsed time: 0.365 seconds.

Files loaded:
C:\Users\S0l1d\02- VLSI\Lab_04\NMOS_IV.spi
C:\Users\S0l1d\02- VLSI\Lab_04\C5_models.txt

