LTspice 24.1.10 for Windows
Circuit: C:\Users\S0l1d\02- VLSI\Lab_06\regulation_circuit.spi
Start Time: Thu Nov  6 23:06:13 2025
solver = Normal
Maximum thread count: 16
tnom = 27
temp = 27
method = trap
Direct Newton iteration for .op point succeeded.
Total elapsed time: 0.391 seconds.

Files loaded:
C:\Users\S0l1d\02- VLSI\Lab_06\regulation_circuit.spi
C:\Users\S0l1d\02- VLSI\Lab_06\cmosedu_models.txt

